studies/australian_pv/source/LV3_55bus/lines.dss
new line.L_54 lineCode=ugsc_16cu_xlpe/nyl/pvc_ug_4w_bundled bus1=B2443 bus2=B3020 length=0.0200252518158 units=km phases=4
new line.L_86 lineCode=ugsc_16cu_xlpe/nyl/pvc_ug_4w_bundled bus1=B783 bus2=B2710 length=0.00766633976502 units=km phases=4
new line.L_474 lineCode=uglv_240al_xlpe/nyl/pvc_ug_4w_bundled bus1=B101 bus2=B3008 length=0.00379801837209 units=km phases=4
new line.L_496 lineCode=ughv_400al_triplex_ug_4w_bundled bus1=B2004 bus2=B1141 length=0.000206301915579 units=km phases=4
new line.L_504 lineCode=ugsc_16cu_xlpe/nyl/pvc_ug_4w_bundled bus1=B1804 bus2=B2698 length=0.0137649861277 units=km phases=4
new line.L_521 lineCode=ugsc_16cu_xlpe/nyl/pvc_ug_4w_bundled bus1=B2698 bus2=B1118 length=0.0415960953079 units=km phases=4
new line.L_613 lineCode=uglv_240al_xlpe/nyl/pvc_ug_4w_bundled bus1=B101 bus2=B1069 length=0.0462265875133 units=km phases=4
new line.L_754 lineCode=uglv_240al_xlpe/nyl/pvc_ug_4w_bundled bus1=B956 bus2=B1479 length=0.0453880435413 units=km phases=4
new line.L_989 lineCode=uglv_240al_xlpe/nyl/pvc_ug_4w_bundled bus1=B1713 bus2=B101 length=0.000747338604607 units=km phases=4
new line.L_1021 lineCode=ughv_400al_triplex_ug_4w_bundled bus1=B718 bus2=B837 length=0.000800000000000 units=km phases=4
new line.L_1168 lineCode=ughv_400al_triplex_ug_4w_bundled bus1=B1473 bus2=B2526 length=6.69200664901e-05 units=km phases=4
new line.L_1232 lineCode=ugsc_16cu_xlpe/nyl/pvc_ug_4w_bundled bus1=B2531 bus2=B1892 length=0.0112649634073 units=km phases=4
new line.L_1243 lineCode=ugsc_16cu_xlpe/nyl/pvc_ug_4w_bundled bus1=B2190 bus2=B783 length=0.0209701186404 units=km phases=4
new line.L_1250 lineCode=ughv_400al_triplex_ug_4w_bundled bus1=B641 bus2=B2972 length=0.000244629175817 units=km phases=4
new line.L_1254 lineCode=ugsc_16cu_xlpe/nyl/pvc_ug_4w_bundled bus1=B956 bus2=B2024 length=0.00661931880078 units=km phases=4
new line.L_1353 lineCode=ugsc_16cu_xlpe/nyl/pvc_ug_4w_bundled bus1=B1069 bus2=B628 length=0.00876847945011 units=km phases=4
new line.L_1594 lineCode=ugsc_16cu_xlpe/nyl/pvc_ug_4w_bundled bus1=B3020 bus2=B121 length=0.00637277022061 units=km phases=4
new line.L_1608 lineCode=uglv_240al_xlpe/nyl/pvc_ug_4w_bundled bus1=B783 bus2=B2473 length=0.0677872737667 units=km phases=4
new line.L_1636 lineCode=ughv_400al_triplex_ug_4w_bundled bus1=B2004 bus2=B1606 length=0.000542172379462 units=km phases=4
new line.L_1677 lineCode=ughv_400al_triplex_ug_4w_bundled bus1=B2004 bus2=B2973 length=0.000346771662470 units=km phases=4
new line.L_1749 lineCode=uglv_240al_xlpe/nyl/pvc_ug_4w_bundled bus1=B2473 bus2=B1006 length=0.0466541967917 units=km phases=4
new line.L_1870 lineCode=uglv_240al_xlpe/nyl/pvc_ug_4w_bundled bus1=B1479 bus2=B3020 length=0.0598841366142 units=km phases=4
new line.L_2000 lineCode=ugsc_16cu_xlpe/nyl/pvc_ug_4w_bundled bus1=B1821 bus2=B783 length=0.0189092694865 units=km phases=4
new line.L_2249 lineCode=ugsc_16cu_xlpe/nyl/pvc_ug_4w_bundled bus1=B2560 bus2=B2473 length=0.0186921394299 units=km phases=4
new line.L_2590 lineCode=uglv_240al_xlpe/nyl/pvc_ug_4w_bundled bus1=B690 bus2=B2531 length=0.0191460675782 units=km phases=4
new line.L_2641 lineCode=ugsc_16cu_xlpe/nyl/pvc_ug_4w_bundled bus1=B1044 bus2=B3020 length=0.0173386358106 units=km phases=4
new line.L_2764 lineCode=uglv_240al_xlpe/nyl/pvc_ug_4w_bundled bus1=B1877 bus2=B1069 length=0.00696654688233 units=km phases=4
new line.L_2791 lineCode=ugsc_16cu_xlpe/nyl/pvc_ug_4w_bundled bus1=B2492 bus2=B2698 length=0.0218984886916 units=km phases=4
new line.L_3005 lineCode=ugsc_16cu_xlpe/nyl/pvc_ug_4w_bundled bus1=B1479 bus2=B1452 length=0.00636288895842 units=km phases=4
new line.L_3253 lineCode=ughv_400al_triplex_ug_4w_bundled bus1=B1396 bus2=B1384 length=6.69200664901e-05 units=km phases=4
new line.L_3254 lineCode=ugsc_16cu_xlpe/nyl/pvc_ug_4w_bundled bus1=B1754 bus2=B2531 length=0.0188003031356 units=km phases=4
new line.L_3311 lineCode=uglv_240al_xlpe/nyl/pvc_ug_4w_bundled bus1=B3020 bus2=B2698 length=0.0745925164540 units=km phases=4
new line.L_3432 lineCode=ugsc_16cu_xlpe/nyl/pvc_ug_4w_bundled bus1=B828 bus2=B101 length=0.0295042653575 units=km phases=4
new line.L_3577 lineCode=ughv_400al_triplex_ug_4w_bundled bus1=B2004 bus2=B1656 length=0.000353807586333 units=km phases=4
new line.L_3656 lineCode=ugsc_16cu_xlpe/nyl/pvc_ug_4w_bundled bus1=B260 bus2=B2473 length=0.0243381632168 units=km phases=4
new line.L_3802 lineCode=ugsc_16cu_xlpe/nyl/pvc_ug_4w_bundled bus1=B1069 bus2=B3304 length=0.0246032291908 units=km phases=4
new line.L_3877 lineCode=ugsc_16cu_xlpe/nyl/pvc_ug_4w_bundled bus1=B1320 bus2=B2473 length=0.00654011499210 units=km phases=4
new line.L_3912 lineCode=uglv_240al_xlpe/nyl/pvc_ug_4w_bundled bus1=B1599 bus2=B956 length=0.00557987801613 units=km phases=4
new line.L_3919 lineCode=ughv_400al_triplex_ug_4w_bundled bus1=B641 bus2=B3015 length=0.000245778678173 units=km phases=4
new line.L_3932 lineCode=ugsc_16cu_xlpe/nyl/pvc_ug_4w_bundled bus1=B1069 bus2=B1393 length=0.0933762231507 units=km phases=4
new line.L_4005 lineCode=ughv_400al_triplex_ug_4w_bundled bus1=B2925 bus2=B2004 length=0.000255748683198 units=km phases=4
new line.L_4153 lineCode=uglv_240al_xlpe/nyl/pvc_ug_4w_bundled bus1=B956 bus2=B837 length=0.0456338482312 units=km phases=4
new line.L_4155 lineCode=ugsc_16cu_xlpe/nyl/pvc_ug_4w_bundled bus1=B605 bus2=B1479 length=0.0132193313191 units=km phases=4
new line.L_4288 lineCode=uglv_240al_xlpe/nyl/pvc_ug_4w_bundled bus1=B2740 bus2=B1713 length=0.0521810871586 units=km phases=4
new line.L_4294 lineCode=ugsc_16cu_xlpe/nyl/pvc_ug_4w_bundled bus1=B2055 bus2=B690 length=0.0193875231214 units=km phases=4
new line.L_4415 lineCode=uglv_240al_xlpe/nyl/pvc_ug_4w_bundled bus1=B2531 bus2=B783 length=0.0690532044853 units=km phases=4
